#TargetFrameworkVersion=v4.0:PlatformToolSet=v120:EnableManagedIncrementalBuild=false:VCToolArchitecture=Native32Bit
Release|x64|C:\Users\MM42910\Dropbox\B02 - Sensoil DualSPHysics\SOURCE\DualSPHysics_v4\|
